Version 4
SHEET 1 2516 1716
WIRE -768 -528 -944 -528
WIRE -736 -528 -768 -528
WIRE -560 -528 -656 -528
WIRE 592 -528 384 -528
WIRE 816 -528 592 -528
WIRE -176 -512 -368 -512
WIRE 64 -512 -96 -512
WIRE -944 -480 -944 -528
WIRE 272 -480 272 -528
WIRE 272 -480 96 -480
WIRE 592 -480 592 -528
WIRE 384 -464 384 -528
WIRE -768 -384 -768 -528
WIRE -736 -384 -768 -384
WIRE 96 -384 96 -480
WIRE 144 -384 96 -384
WIRE -560 -368 -560 -528
WIRE -560 -368 -672 -368
WIRE -496 -368 -560 -368
WIRE -368 -368 -368 -512
WIRE -368 -368 -416 -368
WIRE -192 -368 -368 -368
WIRE 272 -368 272 -480
WIRE 272 -368 208 -368
WIRE 736 -368 736 -448
WIRE -1104 -352 -1104 -400
WIRE -1104 -352 -1136 -352
WIRE -1024 -352 -1104 -352
WIRE -880 -352 -1024 -352
WIRE -752 -352 -800 -352
WIRE -736 -352 -752 -352
WIRE -32 -352 -128 -352
WIRE 64 -352 64 -512
WIRE 64 -352 32 -352
WIRE 144 -352 64 -352
WIRE 592 -352 592 -400
WIRE 592 -352 416 -352
WIRE 704 -352 592 -352
WIRE -192 -336 -256 -336
WIRE 816 -336 816 -528
WIRE 816 -336 768 -336
WIRE -944 -320 -944 -416
WIRE -752 -320 -752 -352
WIRE -752 -320 -944 -320
WIRE -256 -320 -256 -336
WIRE 272 -320 272 -368
WIRE 384 -320 384 -400
WIRE 384 -320 352 -320
WIRE 448 -320 384 -320
WIRE 656 -320 528 -320
WIRE 704 -320 656 -320
WIRE -1776 -304 -1776 -336
WIRE -1648 -304 -1648 -336
WIRE -2032 -288 -2032 -320
WIRE -368 -288 -368 -368
WIRE 592 -288 592 -352
WIRE -1024 -272 -1024 -352
WIRE 656 -272 656 -320
WIRE -768 -240 -768 -384
WIRE -624 -240 -768 -240
WIRE -496 -208 -496 -256
WIRE 736 -208 736 -304
WIRE -768 -192 -768 -240
WIRE -624 -192 -624 -240
WIRE -256 -192 -256 -240
WIRE -1776 -176 -1776 -224
WIRE -1648 -176 -1648 -224
WIRE -368 -160 -368 -208
WIRE 416 -160 416 -352
WIRE 416 -160 336 -160
WIRE 592 -160 592 -208
WIRE 656 -160 656 -208
WIRE -1024 -144 -1024 -192
WIRE -1200 -112 -1200 -144
WIRE -496 -112 -496 -128
WIRE -416 -112 -496 -112
WIRE -256 -112 -336 -112
WIRE -144 -112 -176 -112
WIRE -2032 -80 -2032 -208
WIRE -624 -32 -624 -48
WIRE 256 48 256 -160
WIRE 256 48 -1104 48
WIRE -1104 160 -1104 48
WIRE -1040 160 -1104 160
WIRE -848 160 -976 160
WIRE -672 160 -672 96
WIRE -672 160 -848 160
WIRE -2032 176 -2032 0
WIRE -848 192 -848 160
WIRE -848 304 -848 272
WIRE -784 304 -848 304
WIRE -672 320 -672 160
WIRE -672 320 -720 320
WIRE -1104 336 -1104 160
WIRE -1056 336 -1104 336
WIRE -944 336 -976 336
WIRE -784 336 -944 336
WIRE -1088 368 -1120 368
WIRE -944 368 -944 336
WIRE -1088 384 -1088 368
WIRE -672 432 -672 320
WIRE -944 448 -944 432
WIRE -1088 544 -1088 464
WIRE -672 560 -672 512
WIRE -544 560 -672 560
WIRE -672 576 -672 560
WIRE -960 592 -1040 592
WIRE -848 592 -848 304
WIRE -848 592 -880 592
WIRE -848 624 -848 592
WIRE -672 672 -672 656
WIRE -400 672 -672 672
WIRE -1088 688 -1088 624
WIRE -672 704 -672 672
WIRE -848 752 -848 704
WIRE -1088 800 -1088 768
WIRE -1088 800 -1120 800
WIRE -544 800 -544 560
WIRE -672 816 -672 784
WIRE -400 832 -400 672
FLAG -1776 -336 5V
FLAG -1776 -176 0
FLAG -1648 -336 -5V
FLAG -1648 -176 0
FLAG -2032 -320 Input
FLAG -2032 176 0
FLAG -1136 -352 E23
IOPIN -1136 -352 In
FLAG -1024 -144 0
FLAG -1200 -144 E60
IOPIN -1200 -144 Out
FLAG -1200 -112 0
FLAG -768 -112 0
FLAG -624 -32 0
FLAG -704 -400 5V
FLAG -704 -336 -5V
FLAG -496 -256 5V
FLAG -144 -112 -5V
FLAG -160 -384 5V
FLAG -160 -320 -5V
FLAG -256 -192 0
FLAG 176 -400 5V
FLAG 176 -336 -5V
FLAG 736 -448 5V
FLAG 736 -208 -5V
FLAG 592 -160 0
FLAG 656 -160 0
FLAG 272 -528 T/P-1
FLAG -752 288 5V
FLAG -752 352 -5V
FLAG -672 96 T/P-2
FLAG -848 752 0
FLAG -1120 800 -5V
FLAG -1120 368 5V
FLAG -944 448 0
FLAG -672 816 0
FLAG -544 800 4x
IOPIN -544 800 Out
FLAG -1104 -400 Input
FLAG -400 832 2x
IOPIN -400 832 Out
SYMBOL voltage -1776 -320 R0
WINDOW 123 0 0 Left 0
WINDOW 39 0 0 Left 0
SYMATTR InstName V1
SYMATTR Value 5V
SYMBOL voltage -1648 -320 R0
WINDOW 123 0 0 Left 0
WINDOW 39 0 0 Left 0
SYMATTR InstName V2
SYMATTR Value -5V
SYMBOL voltage -2032 -304 R0
WINDOW 3 24 44 Left 2
SYMATTR Value PWL REPEAT FOREVER TIME_SCALE_FACTOR=0.016 VALUE_SCALE_FACTOR=.3 (0 0 .5 1 1 0) ENDREPEAT
SYMATTR InstName V3
SYMBOL res -1040 -288 R0
SYMATTR InstName R1
SYMATTR Value 30.1k
SYMBOL res -784 -208 R0
WINDOW 0 -32 4 Left 2
WINDOW 3 -60 38 Left 2
SYMATTR InstName R4
SYMATTR Value 25.5k
SYMBOL res -784 -368 R90
WINDOW 0 -29 56 VBottom 2
WINDOW 3 -29 54 VTop 2
SYMATTR InstName R2
SYMATTR Value 20k
SYMBOL res -640 -208 R0
WINDOW 0 -31 22 Left 2
WINDOW 3 -54 59 Left 2
SYMATTR InstName R5
SYMATTR Value 187k
SYMBOL cap -960 -480 R0
SYMATTR InstName C11
SYMATTR Value .002µF
SYMBOL res -640 -544 R90
WINDOW 0 0 56 VBottom 2
WINDOW 3 32 56 VTop 2
SYMATTR InstName R3
SYMATTR Value 110k
SYMBOL res -400 -384 R90
WINDOW 0 0 56 VBottom 2
WINDOW 3 32 56 VTop 2
SYMATTR InstName R9
SYMATTR Value 10k
SYMBOL res -384 -304 R0
SYMATTR InstName R10
SYMATTR Value 1Meg
SYMBOL res -512 -224 R0
WINDOW 0 -32 32 Left 2
WINDOW 3 -39 66 Left 2
SYMATTR InstName R6
SYMATTR Value 22k
SYMBOL res -160 -128 R90
WINDOW 0 0 56 VBottom 2
WINDOW 3 32 56 VTop 2
SYMATTR InstName R8
SYMATTR Value 22k
SYMBOL potentiometer -432 -96 R270
WINDOW 3 -26 -47 VRight 2
SYMATTR Value Rtot=20K wiper=.5
SYMATTR InstName U7
SYMBOL res -272 -336 R0
SYMATTR InstName R11
SYMATTR Value 4.7k
SYMBOL cap -640 -112 R0
WINDOW 0 47 10 Left 2
WINDOW 3 51 43 Left 2
SYMATTR InstName C1
SYMATTR Value 0.1µF
SYMBOL res -80 -528 R90
WINDOW 0 0 56 VBottom 2
WINDOW 3 32 56 VTop 2
SYMATTR InstName R12
SYMATTR Value 10k
SYMBOL res 368 -336 R90
WINDOW 0 0 56 VBottom 2
WINDOW 3 32 56 VTop 2
SYMATTR InstName R13
SYMATTR Value 80.6k
SYMBOL cap 368 -464 R0
SYMATTR InstName C2
SYMATTR Value 0.1µF
SYMBOL res 544 -336 R90
WINDOW 0 0 56 VBottom 2
WINDOW 3 32 56 VTop 2
SYMATTR InstName R14
SYMATTR Value 80.6k
SYMBOL res 608 -192 R180
WINDOW 0 36 76 Left 2
WINDOW 3 36 40 Left 2
SYMATTR InstName R16
SYMATTR Value 10k
SYMBOL res 608 -384 R180
WINDOW 0 36 76 Left 2
WINDOW 3 36 40 Left 2
SYMATTR InstName R15
SYMATTR Value 1.82k
SYMBOL cap 640 -272 R0
SYMATTR InstName C7
SYMATTR Value 0.1µF
SYMBOL res 352 -176 R90
WINDOW 0 0 56 VBottom 2
WINDOW 3 32 56 VTop 2
SYMATTR InstName R17
SYMATTR Value 80.6k
SYMBOL cap -976 144 R90
WINDOW 0 0 32 VBottom 2
WINDOW 3 32 32 VTop 2
SYMATTR InstName C3
SYMATTR Value 0.1µF
SYMBOL res -864 176 R0
SYMATTR InstName R19
SYMATTR Value 3.65k
SYMBOL res -688 416 R0
SYMATTR InstName R25
SYMATTR Value 16.2k
SYMBOL res -688 560 R0
SYMATTR InstName R26
SYMATTR Value 10k
SYMBOL res -688 688 R0
SYMATTR InstName R27
SYMATTR Value 10k
SYMBOL res -864 608 R0
SYMATTR InstName R24
SYMATTR Value 10k
SYMBOL res -864 576 R90
WINDOW 0 0 56 VBottom 2
WINDOW 3 32 56 VTop 2
SYMATTR InstName R23
SYMATTR Value 1Meg
SYMBOL potentiometer -1104 528 R0
WINDOW 0 -20 20 Right 2
WINDOW 3 -22 62 Right 2
SYMATTR InstName U21
SYMATTR Value Rtot=20K wiper=.3675
SYMBOL res -1104 368 R0
SYMATTR InstName R20
SYMATTR Value 4.7k
SYMBOL res -1104 672 R0
SYMATTR InstName R22
SYMATTR Value 10k
SYMBOL res -960 320 R90
WINDOW 0 0 56 VBottom 2
WINDOW 3 32 56 VTop 2
SYMATTR InstName R18
SYMATTR Value 80.6k
SYMBOL cap -960 368 R0
SYMATTR InstName C4
SYMATTR Value 0.1µF
SYMBOL OpAmps\\UniversalOpAmp1 -704 -368 R0
SYMATTR InstName U2
SYMBOL OpAmps\\UniversalOpAmp1 -160 -352 R0
SYMATTR InstName U4
SYMBOL OpAmps\\UniversalOpAmp1 176 -368 R0
SYMATTR InstName U5
SYMBOL OpAmps\\UniversalOpAmp1 736 -336 R0
SYMATTR InstName U6
SYMBOL OpAmps\\UniversalOpAmp1 -752 320 R0
SYMATTR InstName U8
SYMBOL diode -32 -336 R270
WINDOW 0 32 32 VTop 2
WINDOW 3 0 32 VBottom 2
SYMATTR InstName D1
SYMATTR Value 1N914
SYMBOL voltage -2032 -96 R0
WINDOW 123 0 0 Left 0
WINDOW 39 0 0 Left 0
SYMATTR InstName V5
SYMATTR Value PULSE(0 0 .5 1 1 0)
TEXT 928 -592 Left 2 !.SUBCKT potentiometer 1 2 3\n.param w=limit(wiper,1m,.999)\nR0 1 3 {Rtot*(1-w)}\nR1 3 2 {Rtot*(w)}\n.ENDS
TEXT 176 -520 Left 2 ;.55 Vdc
TEXT 776 -408 Left 2 ;.55 Vdc
TEXT 184 -264 Left 2 ;(AC Only)
TEXT -536 200 Left 2 ;5x amplifier at t/p2?
TEXT -2066 924 Left 2 !.tran 200MS
